tests/data/upgrade-models/sb10_p12uhs0_1247_trans_301/p12udt1277/PVDeployments/sb10_p12uhs0_1247_trans_301__p12udt1277__random__8__195.dss
Redirect ../OpenDSS/Master.dss

// PV Scenario for 1617.370241430142 kW total size, Scenario type random, Sample 8 and penetration 195% (PV to load ratio) 
! =====================PV SCENARIO FILE==============================
New PVSystem.small_p12ulv36738_1_2_pv phases=1 bus1=p12ulv36738.1.2 kv=0.2402 irradiance=1 Pmpp=18.16 %Pmpp=100 kVA=18.16 conn=wye %cutin=0.1 %cutout=0.1 Vmaxpu=1.2
New PVSystem.small_p12ulv25533_1_2_pv phases=1 bus1=p12ulv25533.1.2 kv=0.2402 irradiance=1 Pmpp=12.705 %Pmpp=100 kVA=12.705 conn=wye %cutin=0.1 %cutout=0.1 Vmaxpu=1.2
New PVSystem.small_p12ulv5483_1_2_pv phases=1 bus1=p12ulv5483.1.2 kv=0.2402 irradiance=1 Pmpp=26.522 %Pmpp=100 kVA=26.522 conn=wye %cutin=0.1 %cutout=0.1 Vmaxpu=1.2
New PVSystem.small_p12ulv20628_1_2_pv phases=1 bus1=p12ulv20628.1.2 kv=0.2402 irradiance=1 Pmpp=22.456 %Pmpp=100 kVA=22.456 conn=wye %cutin=0.1 %cutout=0.1 Vmaxpu=1.2
New PVSystem.small_p12ulv5532_1_2_pv phases=1 bus1=p12ulv5532.1.2 kv=0.2402 irradiance=1 Pmpp=18.246 %Pmpp=100 kVA=18.246 conn=wye %cutin=0.1 %cutout=0.1 Vmaxpu=1.2
New PVSystem.small_p12ulv16360_1_2_pv phases=1 bus1=p12ulv16360.1.2 kv=0.2402 irradiance=1 Pmpp=27.894 %Pmpp=100 kVA=27.894 conn=wye %cutin=0.1 %cutout=0.1 Vmaxpu=1.2
New PVSystem.small_p12ulv900_1_2_pv phases=1 bus1=p12ulv900.1.2 kv=0.2402 irradiance=1 Pmpp=13.905 %Pmpp=100 kVA=13.905 conn=wye %cutin=0.1 %cutout=0.1 Vmaxpu=1.2
New PVSystem.small_p12ulv1_1_2_pv phases=1 bus1=p12ulv1.1.2 kv=0.2402 irradiance=1 Pmpp=37.474 %Pmpp=100 kVA=37.474 conn=wye %cutin=0.1 %cutout=0.1 Vmaxpu=1.2
New PVSystem.small_p12ulv4482_1_2_pv phases=1 bus1=p12ulv4482.1.2 kv=0.2402 irradiance=1 Pmpp=52.002 %Pmpp=100 kVA=52.002 conn=wye %cutin=0.1 %cutout=0.1 Vmaxpu=1.2
New PVSystem.small_p12ulv33472_1_2_pv phases=1 bus1=p12ulv33472.1.2 kv=0.2402 irradiance=1 Pmpp=16.163 %Pmpp=100 kVA=16.163 conn=wye %cutin=0.1 %cutout=0.1 Vmaxpu=1.2
New PVSystem.small_p12ulv20609_1_2_pv phases=1 bus1=p12ulv20609.1.2 kv=0.2402 irradiance=1 Pmpp=1.613 %Pmpp=100 kVA=1.613 conn=wye %cutin=0.1 %cutout=0.1 Vmaxpu=1.2
New PVSystem.small_p12ulv5487_1_2_pv phases=1 bus1=p12ulv5487.1.2 kv=0.2402 irradiance=1 Pmpp=12.104 %Pmpp=100 kVA=12.104 conn=wye %cutin=0.1 %cutout=0.1 Vmaxpu=1.2
New PVSystem.small_p12ulv16385_1_2_pv phases=1 bus1=p12ulv16385.1.2 kv=0.2402 irradiance=1 Pmpp=18.488 %Pmpp=100 kVA=18.488 conn=wye %cutin=0.1 %cutout=0.1 Vmaxpu=1.2
New PVSystem.small_p12ulv20601_1_2_pv phases=1 bus1=p12ulv20601.1.2 kv=0.2402 irradiance=1 Pmpp=24.198 %Pmpp=100 kVA=24.198 conn=wye %cutin=0.1 %cutout=0.1 Vmaxpu=1.2
New PVSystem.small_p12ulv12590_1_2_pv phases=1 bus1=p12ulv12590.1.2 kv=0.2402 irradiance=1 Pmpp=16.163 %Pmpp=100 kVA=16.163 conn=wye %cutin=0.1 %cutout=0.1 Vmaxpu=1.2
New PVSystem.small_p12ulv24869_1_2_pv phases=1 bus1=p12ulv24869.1.2 kv=0.2402 irradiance=1 Pmpp=18.759 %Pmpp=100 kVA=18.759 conn=wye %cutin=0.1 %cutout=0.1 Vmaxpu=1.2
New PVSystem.small_p12ulv5504_1_2_pv phases=1 bus1=p12ulv5504.1.2 kv=0.2402 irradiance=1 Pmpp=37.474 %Pmpp=100 kVA=37.474 conn=wye %cutin=0.1 %cutout=0.1 Vmaxpu=1.2
New PVSystem.small_p12ulv5600_1_2_pv phases=1 bus1=p12ulv5600.1.2 kv=0.2402 irradiance=1 Pmpp=16.163 %Pmpp=100 kVA=16.163 conn=wye %cutin=0.1 %cutout=0.1 Vmaxpu=1.2
New PVSystem.small_p12ulv5521_1_2_pv phases=1 bus1=p12ulv5521.1.2 kv=0.2402 irradiance=1 Pmpp=26.239 %Pmpp=100 kVA=26.239 conn=wye %cutin=0.1 %cutout=0.1 Vmaxpu=1.2
New PVSystem.small_p12ulv5478_1_2_pv phases=1 bus1=p12ulv5478.1.2 kv=0.2402 irradiance=1 Pmpp=13.905 %Pmpp=100 kVA=13.905 conn=wye %cutin=0.1 %cutout=0.1 Vmaxpu=1.2
New PVSystem.small_p12ulv3714_1_2_pv phases=1 bus1=p12ulv3714.1.2 kv=0.2402 irradiance=1 Pmpp=23.715 %Pmpp=100 kVA=23.715 conn=wye %cutin=0.1 %cutout=0.1 Vmaxpu=1.2
New PVSystem.small_p12ulv20610_1_2_pv phases=1 bus1=p12ulv20610.1.2 kv=0.2402 irradiance=1 Pmpp=16.831 %Pmpp=100 kVA=16.831 conn=wye %cutin=0.1 %cutout=0.1 Vmaxpu=1.2
New PVSystem.small_p12ulv20603_1_2_pv phases=1 bus1=p12ulv20603.1.2 kv=0.2402 irradiance=1 Pmpp=16.163 %Pmpp=100 kVA=16.163 conn=wye %cutin=0.1 %cutout=0.1 Vmaxpu=1.2
New PVSystem.small_p12ulv25889_1_2_pv phases=1 bus1=p12ulv25889.1.2 kv=0.2402 irradiance=1 Pmpp=33.392 %Pmpp=100 kVA=33.392 conn=wye %cutin=0.1 %cutout=0.1 Vmaxpu=1.2
New PVSystem.small_p12ulv20633_1_2_pv phases=1 bus1=p12ulv20633.1.2 kv=0.2402 irradiance=1 Pmpp=24.198 %Pmpp=100 kVA=24.198 conn=wye %cutin=0.1 %cutout=0.1 Vmaxpu=1.2
New PVSystem.small_p12ulv899_1_2_pv phases=1 bus1=p12ulv899.1.2 kv=0.2402 irradiance=1 Pmpp=16.163 %Pmpp=100 kVA=16.163 conn=wye %cutin=0.1 %cutout=0.1 Vmaxpu=1.2
New PVSystem.small_p12ulv20617_1_2_pv phases=1 bus1=p12ulv20617.1.2 kv=0.2402 irradiance=1 Pmpp=3.489 %Pmpp=100 kVA=3.489 conn=wye %cutin=0.1 %cutout=0.1 Vmaxpu=1.2
New PVSystem.small_p12ulv24788_1_2_pv phases=1 bus1=p12ulv24788.1.2 kv=0.2402 irradiance=1 Pmpp=18.486 %Pmpp=100 kVA=18.486 conn=wye %cutin=0.1 %cutout=0.1 Vmaxpu=1.2
New PVSystem.small_p12ulv20620_1_2_pv phases=1 bus1=p12ulv20620.1.2 kv=0.2402 irradiance=1 Pmpp=23.532 %Pmpp=100 kVA=23.532 conn=wye %cutin=0.1 %cutout=0.1 Vmaxpu=1.2
New PVSystem.small_p12ulv20606_1_2_3_pv phases=3 bus1=p12ulv20606.1.2.3 kv=0.48 irradiance=1 Pmpp=98.318 %Pmpp=100 kVA=98.318 conn=wye %cutin=0.1 %cutout=0.1 Vmaxpu=1.2
New PVSystem.small_p12ulv25604_1_2_3_pv phases=3 bus1=p12ulv25604.1.2.3 kv=0.48 irradiance=1 Pmpp=53.487 %Pmpp=100 kVA=53.487 conn=wye %cutin=0.1 %cutout=0.1 Vmaxpu=1.2
New PVSystem.small_p12ulv36706_1_2_pv phases=1 bus1=p12ulv36706.1.2 kv=0.2402 irradiance=1 Pmpp=7.713 %Pmpp=100 kVA=7.713 conn=wye %cutin=0.1 %cutout=0.1 Vmaxpu=1.2
New PVSystem.small_p12ulv20613_1_2_pv phases=1 bus1=p12ulv20613.1.2 kv=0.2402 irradiance=1 Pmpp=16.556 %Pmpp=100 kVA=16.556 conn=wye %cutin=0.1 %cutout=0.1 Vmaxpu=1.2
New PVSystem.small_p12ulv12594_1_2_pv phases=1 bus1=p12ulv12594.1.2 kv=0.2402 irradiance=1 Pmpp=18.759 %Pmpp=100 kVA=18.759 conn=wye %cutin=0.1 %cutout=0.1 Vmaxpu=1.2
New PVSystem.small_p12ulv16400_1_2_pv phases=1 bus1=p12ulv16400.1.2 kv=0.2402 irradiance=1 Pmpp=15.144 %Pmpp=100 kVA=15.144 conn=wye %cutin=0.1 %cutout=0.1 Vmaxpu=1.2
New PVSystem.small_p12ulv20624_1_2_pv phases=1 bus1=p12ulv20624.1.2 kv=0.2402 irradiance=1 Pmpp=16.163 %Pmpp=100 kVA=16.163 conn=wye %cutin=0.1 %cutout=0.1 Vmaxpu=1.2
New PVSystem.small_p12ulv36679_1_2_pv phases=1 bus1=p12ulv36679.1.2 kv=0.2402 irradiance=1 Pmpp=10.628 %Pmpp=100 kVA=10.628 conn=wye %cutin=0.1 %cutout=0.1 Vmaxpu=1.2
New PVSystem.small_p12ulv5613_1_2_pv phases=1 bus1=p12ulv5613.1.2 kv=0.2402 irradiance=1 Pmpp=16.163 %Pmpp=100 kVA=16.163 conn=wye %cutin=0.1 %cutout=0.1 Vmaxpu=1.2
New PVSystem.small_p12ulv5612_1_2_pv phases=1 bus1=p12ulv5612.1.2 kv=0.2402 irradiance=1 Pmpp=21.282 %Pmpp=100 kVA=21.282 conn=wye %cutin=0.1 %cutout=0.1 Vmaxpu=1.2
New PVSystem.small_p12ulv36499_1_2_pv phases=1 bus1=p12ulv36499.1.2 kv=0.2402 irradiance=1 Pmpp=42.578 %Pmpp=100 kVA=42.578 conn=wye %cutin=0.1 %cutout=0.1 Vmaxpu=1.2
New PVSystem.small_p12ulv25832_1_2_pv phases=1 bus1=p12ulv25832.1.2 kv=0.2402 irradiance=1 Pmpp=16.556 %Pmpp=100 kVA=16.556 conn=wye %cutin=0.1 %cutout=0.1 Vmaxpu=1.2
New PVSystem.small_p12ulv5512_1_2_pv phases=1 bus1=p12ulv5512.1.2 kv=0.2402 irradiance=1 Pmpp=16.292 %Pmpp=100 kVA=16.292 conn=wye %cutin=0.1 %cutout=0.1 Vmaxpu=1.2
New PVSystem.small_p12ulv12854_1_2_pv phases=1 bus1=p12ulv12854.1.2 kv=0.2402 irradiance=1 Pmpp=18.759 %Pmpp=100 kVA=18.759 conn=wye %cutin=0.1 %cutout=0.1 Vmaxpu=1.2
New PVSystem.small_p12ulv20634_1_2_pv phases=1 bus1=p12ulv20634.1.2 kv=0.2402 irradiance=1 Pmpp=5.901 %Pmpp=100 kVA=5.901 conn=wye %cutin=0.1 %cutout=0.1 Vmaxpu=1.2
New PVSystem.small_p12ulv16429_1_2_pv phases=1 bus1=p12ulv16429.1.2 kv=0.2402 irradiance=1 Pmpp=21.418 %Pmpp=100 kVA=21.418 conn=wye %cutin=0.1 %cutout=0.1 Vmaxpu=1.2
New PVSystem.small_p12ulv36659_1_2_pv phases=1 bus1=p12ulv36659.1.2 kv=0.2402 irradiance=1 Pmpp=34.565 %Pmpp=100 kVA=34.565 conn=wye %cutin=0.1 %cutout=0.1 Vmaxpu=1.2
New PVSystem.small_p12ulv16381_1_2_pv phases=1 bus1=p12ulv16381.1.2 kv=0.2402 irradiance=1 Pmpp=20.194 %Pmpp=100 kVA=20.194 conn=wye %cutin=0.1 %cutout=0.1 Vmaxpu=1.2
New PVSystem.small_p12ulv33526_1_2_pv phases=1 bus1=p12ulv33526.1.2 kv=0.2402 irradiance=1 Pmpp=17.32 %Pmpp=100 kVA=17.32 conn=wye %cutin=0.1 %cutout=0.1 Vmaxpu=1.2
New PVSystem.small_p12ulv24840_1_2_pv phases=1 bus1=p12ulv24840.1.2 kv=0.2402 irradiance=1 Pmpp=15.261 %Pmpp=100 kVA=15.261 conn=wye %cutin=0.1 %cutout=0.1 Vmaxpu=1.2
New PVSystem.small_p12ulv33504_1_2_pv phases=1 bus1=p12ulv33504.1.2 kv=0.2402 irradiance=1 Pmpp=13.43 %Pmpp=100 kVA=13.43 conn=wye %cutin=0.1 %cutout=0.1 Vmaxpu=1.2
New PVSystem.small_p12ulv33461_1_2_pv phases=1 bus1=p12ulv33461.1.2 kv=0.2402 irradiance=1 Pmpp=16.845 %Pmpp=100 kVA=16.845 conn=wye %cutin=0.1 %cutout=0.1 Vmaxpu=1.2
New PVSystem.small_p12ulv4522_1_2_pv phases=1 bus1=p12ulv4522.1.2 kv=0.2402 irradiance=1 Pmpp=18.759 %Pmpp=100 kVA=18.759 conn=wye %cutin=0.1 %cutout=0.1 Vmaxpu=1.2
New PVSystem.small_p12ulv20623_1_2_pv phases=1 bus1=p12ulv20623.1.2 kv=0.2402 irradiance=1 Pmpp=16.163 %Pmpp=100 kVA=16.163 conn=wye %cutin=0.1 %cutout=0.1 Vmaxpu=1.2
New PVSystem.small_p12ulv33475_1_2_pv phases=1 bus1=p12ulv33475.1.2 kv=0.2402 irradiance=1 Pmpp=22.532 %Pmpp=100 kVA=22.532 conn=wye %cutin=0.1 %cutout=0.1 Vmaxpu=1.2
New PVSystem.small_p12ulv20612_1_2_pv phases=1 bus1=p12ulv20612.1.2 kv=0.2402 irradiance=1 Pmpp=21.282 %Pmpp=100 kVA=21.282 conn=wye %cutin=0.1 %cutout=0.1 Vmaxpu=1.2
New PVSystem.small_p12ulv5607_1_2_pv phases=1 bus1=p12ulv5607.1.2 kv=0.2402 irradiance=1 Pmpp=20.667 %Pmpp=100 kVA=20.667 conn=wye %cutin=0.1 %cutout=0.1 Vmaxpu=1.2
New PVSystem.small_p12ulv5457_1_2_pv phases=1 bus1=p12ulv5457.1.2 kv=0.2402 irradiance=1 Pmpp=29.141 %Pmpp=100 kVA=29.141 conn=wye %cutin=0.1 %cutout=0.1 Vmaxpu=1.2
New PVSystem.small_p12ulv5524_1_2_pv phases=1 bus1=p12ulv5524.1.2 kv=0.2402 irradiance=1 Pmpp=18.759 %Pmpp=100 kVA=18.759 conn=wye %cutin=0.1 %cutout=0.1 Vmaxpu=1.2
New PVSystem.small_p12ulv3717_1_2_pv phases=1 bus1=p12ulv3717.1.2 kv=0.2402 irradiance=1 Pmpp=14.903 %Pmpp=100 kVA=14.903 conn=wye %cutin=0.1 %cutout=0.1 Vmaxpu=1.2
New PVSystem.small_p12ulv24751_1_2_pv phases=1 bus1=p12ulv24751.1.2 kv=0.2402 irradiance=1 Pmpp=16.333 %Pmpp=100 kVA=16.333 conn=wye %cutin=0.1 %cutout=0.1 Vmaxpu=1.2
New PVSystem.small_p12ulv16423_1_2_pv phases=1 bus1=p12ulv16423.1.2 kv=0.2402 irradiance=1 Pmpp=24.433 %Pmpp=100 kVA=24.433 conn=wye %cutin=0.1 %cutout=0.1 Vmaxpu=1.2
New PVSystem.small_p12ulv12030_1_2_pv phases=1 bus1=p12ulv12030.1.2 kv=0.2402 irradiance=1 Pmpp=13.438 %Pmpp=100 kVA=13.438 conn=wye %cutin=0.1 %cutout=0.1 Vmaxpu=1.2
New PVSystem.small_p12ulv5527_1_2_pv phases=1 bus1=p12ulv5527.1.2 kv=0.2402 irradiance=1 Pmpp=20.249 %Pmpp=100 kVA=20.249 conn=wye %cutin=0.1 %cutout=0.1 Vmaxpu=1.2
New PVSystem.small_p12ulv20621_1_2_pv phases=1 bus1=p12ulv20621.1.2 kv=0.2402 irradiance=1 Pmpp=26.239 %Pmpp=100 kVA=26.239 conn=wye %cutin=0.1 %cutout=0.1 Vmaxpu=1.2
New PVSystem.small_p12ulv24717_1_2_pv phases=1 bus1=p12ulv24717.1.2 kv=0.2402 irradiance=1 Pmpp=13.87 %Pmpp=100 kVA=13.87 conn=wye %cutin=0.1 %cutout=0.1 Vmaxpu=1.2
New PVSystem.small_p12ulv20642_1_2_pv phases=1 bus1=p12ulv20642.1.2 kv=0.2402 irradiance=1 Pmpp=3.242 %Pmpp=100 kVA=3.242 conn=wye %cutin=0.1 %cutout=0.1 Vmaxpu=1.2
New PVSystem.small_p12ulv3715_1_2_pv phases=1 bus1=p12ulv3715.1.2 kv=0.2402 irradiance=1 Pmpp=9.168 %Pmpp=100 kVA=9.168 conn=wye %cutin=0.1 %cutout=0.1 Vmaxpu=1.2
New PVSystem.small_p12ulv20635_1_2_pv phases=1 bus1=p12ulv20635.1.2 kv=0.2402 irradiance=1 Pmpp=14.426 %Pmpp=100 kVA=14.426 conn=wye %cutin=0.1 %cutout=0.1 Vmaxpu=1.2
New PVSystem.small_p12ulv36512_1_2_pv phases=1 bus1=p12ulv36512.1.2 kv=0.2402 irradiance=1 Pmpp=17.878 %Pmpp=100 kVA=17.878 conn=wye %cutin=0.1 %cutout=0.1 Vmaxpu=1.2
New PVSystem.small_p12ulv898_1_2_3_pv phases=3 bus1=p12ulv898.1.2.3 kv=0.48 irradiance=1 Pmpp=59.547 %Pmpp=100 kVA=59.547 conn=wye %cutin=0.1 %cutout=0.1 Vmaxpu=1.2
New PVSystem.small_p12ulv33481_1_2_pv phases=1 bus1=p12ulv33481.1.2 kv=0.2402 irradiance=1 Pmpp=11.496 %Pmpp=100 kVA=11.496 conn=wye %cutin=0.1 %cutout=0.1 Vmaxpu=1.2
New PVSystem.small_p12ulv3719_1_2_pv phases=1 bus1=p12ulv3719.1.2 kv=0.2402 irradiance=1 Pmpp=32.583 %Pmpp=100 kVA=32.583 conn=wye %cutin=0.1 %cutout=0.1 Vmaxpu=1.2
New PVSystem.small_p12ulv20600_1_2_pv phases=1 bus1=p12ulv20600.1.2 kv=0.2402 irradiance=1 Pmpp=8.704 %Pmpp=100 kVA=8.704 conn=wye %cutin=0.1 %cutout=0.1 Vmaxpu=1.2
New PVSystem.small_p12ulv4471_1_2_pv phases=1 bus1=p12ulv4471.1.2 kv=0.2402 irradiance=1 Pmpp=18.073 %Pmpp=100 kVA=18.073 conn=wye %cutin=0.1 %cutout=0.1 Vmaxpu=1.2
New PVSystem.small_p12ulv20615_1_2_pv phases=1 bus1=p12ulv20615.1.2 kv=0.2402 irradiance=1 Pmpp=4.791 %Pmpp=100 kVA=4.791 conn=wye %cutin=0.1 %cutout=0.1 Vmaxpu=1.2
New PVSystem.small_p12ulv5604_1_2_pv phases=1 bus1=p12ulv5604.1.2 kv=0.2402 irradiance=1 Pmpp=26.296 %Pmpp=100 kVA=26.296 conn=wye %cutin=0.1 %cutout=0.1 Vmaxpu=1.2
New PVSystem.small_p12ulv20638_1_2_pv phases=1 bus1=p12ulv20638.1.2 kv=0.2402 irradiance=1 Pmpp=14.463 %Pmpp=100 kVA=14.463 conn=wye %cutin=0.1 %cutout=0.1 Vmaxpu=1.2

Solve
